
  EPA STORM WATER MANAGEMENT MODEL - VERSION 5.2 (Build 5.2.4)
  PYSWMM TOOLKIT API - VERSION v1.0 (2024-04-17)
  ------------------------------------------------------------

  
  ERROR 209: undefined object Pumpwerk at line 75 of [CONDUIT] section:
  Becken1                     Becken1                     Pumpwerk                    64.0      0.01    238.246     235.7       0           0           

  
  ERROR 209: undefined object coming at line 88 of [PUMP] section:
  Pumpwerk        Pumpwerk_B      Pumpwerk_A      coming     ON         0          0         
