
  EPA STORM WATER MANAGEMENT MODEL - VERSION 5.2 (Build 5.2.4)
  PYSWMM TOOLKIT API - VERSION v1.0 (2024-04-17)
  ------------------------------------------------------------

  Kohn's Wasserwirtschaft 
  Fabio Q. 
  2024-05-21 
  
  ERROR 108: ambiguous outlet ID name for Subcatchment 119001.
  
  ERROR 108: ambiguous outlet ID name for Subcatchment 119001_bef.
  
  ERROR 108: ambiguous outlet ID name for Subcatchment 119001_Dach.
  
  ERROR 108: ambiguous outlet ID name for Subcatchment 119002.
  
  ERROR 108: ambiguous outlet ID name for Subcatchment 119002_bef.
  
  ERROR 108: ambiguous outlet ID name for Subcatchment 119002_Dach.
  
  ERROR 108: ambiguous outlet ID name for Subcatchment 119003.
  
  ERROR 108: ambiguous outlet ID name for Subcatchment 119003_bef.
  
  ERROR 108: ambiguous outlet ID name for Subcatchment 119003_Dach.
  
  ERROR 108: ambiguous outlet ID name for Subcatchment 119004.
  
  ERROR 108: ambiguous outlet ID name for Subcatchment 119004_bef.
  
  ERROR 108: ambiguous outlet ID name for Subcatchment 119004_Dach.
  
  ERROR 108: ambiguous outlet ID name for Subcatchment 119004B01.
  
  ERROR 108: ambiguous outlet ID name for Subcatchment 119004B01_bef.
  
  ERROR 108: ambiguous outlet ID name for Subcatchment 119004B01_Dach.
  
  ERROR 108: ambiguous outlet ID name for Subcatchment 119004SF01.
  
  ERROR 108: ambiguous outlet ID name for Subcatchment 119004SF01_bef.
  
  ERROR 108: ambiguous outlet ID name for Subcatchment 119004SF01_Dach.
  
  ERROR 108: ambiguous outlet ID name for Subcatchment 119005.
  
  ERROR 108: ambiguous outlet ID name for Subcatchment 119005_bef.
  
  ERROR 108: ambiguous outlet ID name for Subcatchment 119005_Dach.
  
  ERROR 108: ambiguous outlet ID name for Subcatchment 119007.
  
  ERROR 108: ambiguous outlet ID name for Subcatchment 119007_bef.
  
  ERROR 108: ambiguous outlet ID name for Subcatchment 119007_Dach.
  
  ERROR 108: ambiguous outlet ID name for Subcatchment 119007_Dach2.
  
  ERROR 108: ambiguous outlet ID name for Subcatchment 119008.
  
  ERROR 108: ambiguous outlet ID name for Subcatchment 119008_bef.
  
  ERROR 108: ambiguous outlet ID name for Subcatchment 119008_Dach.
  
  ERROR 108: ambiguous outlet ID name for Subcatchment 119009.
  
  ERROR 108: ambiguous outlet ID name for Subcatchment 119009_bef.
  
  ERROR 108: ambiguous outlet ID name for Subcatchment 119009_Dach.
  
  ERROR 108: ambiguous outlet ID name for Subcatchment 119010.
  
  ERROR 108: ambiguous outlet ID name for Subcatchment 119010_bef.
  
  ERROR 108: ambiguous outlet ID name for Subcatchment 119010_Dach.
  
  ERROR 108: ambiguous outlet ID name for Subcatchment 119011.
  
  ERROR 108: ambiguous outlet ID name for Subcatchment 119011_bef.
  
  ERROR 108: ambiguous outlet ID name for Subcatchment 119011_Dach.
  
  ERROR 108: ambiguous outlet ID name for Subcatchment 119012A.
  
  ERROR 108: ambiguous outlet ID name for Subcatchment 119012A_bef.
  
  ERROR 108: ambiguous outlet ID name for Subcatchment 119012A_Dach.
  
  ERROR 108: ambiguous outlet ID name for Subcatchment 119012B.
  
  ERROR 108: ambiguous outlet ID name for Subcatchment 119012B_bef.
  
  ERROR 108: ambiguous outlet ID name for Subcatchment 119012B_Dach.
  
  ERROR 108: ambiguous outlet ID name for Subcatchment 119012B01.
  
  ERROR 108: ambiguous outlet ID name for Subcatchment 119012B01_bef.
  
  ERROR 108: ambiguous outlet ID name for Subcatchment 119012B01_Dach.
  
  ERROR 108: ambiguous outlet ID name for Subcatchment 119012B02.
  
  ERROR 108: ambiguous outlet ID name for Subcatchment 119012B02_bef.
  
  ERROR 108: ambiguous outlet ID name for Subcatchment 119012B02_Dach.
  
  ERROR 108: ambiguous outlet ID name for Subcatchment 119012B03.
  
  ERROR 108: ambiguous outlet ID name for Subcatchment 119012B03_bef.
  
  ERROR 108: ambiguous outlet ID name for Subcatchment 119012B03_Dach.
  
  ERROR 108: ambiguous outlet ID name for Subcatchment 119012C.
  
  ERROR 108: ambiguous outlet ID name for Subcatchment 119012C_bef.
  
  ERROR 108: ambiguous outlet ID name for Subcatchment 119012C_Dach.
  
  ERROR 108: ambiguous outlet ID name for Subcatchment 119012SF01.
  
  ERROR 108: ambiguous outlet ID name for Subcatchment 119012SF01_bef.
  
  ERROR 108: ambiguous outlet ID name for Subcatchment 119012SF01_Dach.
  
  ERROR 108: ambiguous outlet ID name for Subcatchment 119012SF02.
  
  ERROR 108: ambiguous outlet ID name for Subcatchment 119012SF02_bef.
  
  ERROR 108: ambiguous outlet ID name for Subcatchment 119012SF02_Dach.
  
  ERROR 108: ambiguous outlet ID name for Subcatchment 119012SF03.
  
  ERROR 108: ambiguous outlet ID name for Subcatchment 119012SF03_bef.
  
  ERROR 108: ambiguous outlet ID name for Subcatchment 119012SF03_Dach.
  
  ERROR 108: ambiguous outlet ID name for Subcatchment 119013.
  
  ERROR 108: ambiguous outlet ID name for Subcatchment 119013_bef.
  
  ERROR 108: ambiguous outlet ID name for Subcatchment 119013_Dach.
  
  ERROR 108: ambiguous outlet ID name for Subcatchment 119014.
  
  ERROR 108: ambiguous outlet ID name for Subcatchment 119014_bef.
  
  ERROR 108: ambiguous outlet ID name for Subcatchment 119014_Dach.
  
  ERROR 108: ambiguous outlet ID name for Subcatchment 119015.
  
  ERROR 108: ambiguous outlet ID name for Subcatchment 119015_bef.
  
  ERROR 108: ambiguous outlet ID name for Subcatchment 119015_Dach.
  
  ERROR 108: ambiguous outlet ID name for Subcatchment 119015A.
  
  ERROR 108: ambiguous outlet ID name for Subcatchment 119015A_bef.
  
  ERROR 108: ambiguous outlet ID name for Subcatchment 119015A_Dach.
  
  ERROR 108: ambiguous outlet ID name for Subcatchment 119016AUSF.
  
  ERROR 108: ambiguous outlet ID name for Subcatchment 119016AUSF_bef.
  
  ERROR 108: ambiguous outlet ID name for Subcatchment 119016AUSF_Dach.
  
  ERROR 108: ambiguous outlet ID name for Subcatchment 119017.
  
  ERROR 108: ambiguous outlet ID name for Subcatchment 119017_bef.
  
  ERROR 108: ambiguous outlet ID name for Subcatchment 119017_Dach.
  
  ERROR 108: ambiguous outlet ID name for Subcatchment 119018.
  
  ERROR 108: ambiguous outlet ID name for Subcatchment 119018_bef.
  
  ERROR 108: ambiguous outlet ID name for Subcatchment 119018_Dach.
  
  ERROR 108: ambiguous outlet ID name for Subcatchment 119019.
  
  ERROR 108: ambiguous outlet ID name for Subcatchment 119019_bef.
  
  ERROR 108: ambiguous outlet ID name for Subcatchment 119019_Dach.
  
  ERROR 108: ambiguous outlet ID name for Subcatchment 119020.
  
  ERROR 108: ambiguous outlet ID name for Subcatchment 119020_bef.
  
  ERROR 108: ambiguous outlet ID name for Subcatchment 119020_Dach.
  
  ERROR 108: ambiguous outlet ID name for Subcatchment 119021.
  
  ERROR 108: ambiguous outlet ID name for Subcatchment 119021_bef.
  
  ERROR 108: ambiguous outlet ID name for Subcatchment 119021_Dach.
  
  ERROR 108: ambiguous outlet ID name for Subcatchment 119022.
  
  ERROR 108: ambiguous outlet ID name for Subcatchment 119022_bef.
  
  ERROR 108: ambiguous outlet ID name for Subcatchment 119022_Dach.
  
  ERROR 108: ambiguous outlet ID name for Subcatchment 119023.
  
  ERROR 108: ambiguous outlet ID name for Subcatchment 119023_bef.
  
  ERROR 108: ambiguous outlet ID name for Subcatchment 119023_Dach.
  
  ERROR 108: ambiguous outlet ID name for Subcatchment 119024.
  
  ERROR 108: ambiguous outlet ID name for Subcatchment 119024_bef.
  
  ERROR 108: ambiguous outlet ID name for Subcatchment 119024_Dach.
  
  ERROR 108: ambiguous outlet ID name for Subcatchment 119025.
  
  ERROR 108: ambiguous outlet ID name for Subcatchment 119025_bef.
  
  ERROR 108: ambiguous outlet ID name for Subcatchment 119025_Dach.
  
  ERROR 108: ambiguous outlet ID name for Subcatchment 119026.
  
  ERROR 108: ambiguous outlet ID name for Subcatchment 119026_bef.
  
  ERROR 108: ambiguous outlet ID name for Subcatchment 119026_Dach.
  
  ERROR 108: ambiguous outlet ID name for Subcatchment 119027.
  
  ERROR 108: ambiguous outlet ID name for Subcatchment 119027_bef.
  
  ERROR 108: ambiguous outlet ID name for Subcatchment 119027_Dach.
  
  ERROR 108: ambiguous outlet ID name for Subcatchment 119028.
  
  ERROR 108: ambiguous outlet ID name for Subcatchment 119028_bef.
  
  ERROR 108: ambiguous outlet ID name for Subcatchment 119028_Dach.
  
  ERROR 108: ambiguous outlet ID name for Subcatchment 119029.
  
  ERROR 108: ambiguous outlet ID name for Subcatchment 119029_bef.
  
  ERROR 108: ambiguous outlet ID name for Subcatchment 119029_Dach.
  
  ERROR 108: ambiguous outlet ID name for Subcatchment 119029A.
  
  ERROR 108: ambiguous outlet ID name for Subcatchment 119029A_bef.
  
  ERROR 108: ambiguous outlet ID name for Subcatchment 119029A_Dach.
  
  ERROR 108: ambiguous outlet ID name for Subcatchment 119030.
  
  ERROR 108: ambiguous outlet ID name for Subcatchment 119030_bef.
  
  ERROR 108: ambiguous outlet ID name for Subcatchment 119030_Dach.
  
  ERROR 108: ambiguous outlet ID name for Subcatchment 119031.
  
  ERROR 108: ambiguous outlet ID name for Subcatchment 119031_bef.
  
  ERROR 108: ambiguous outlet ID name for Subcatchment 119031_Dach.
  
  ERROR 108: ambiguous outlet ID name for Subcatchment 119032.
  
  ERROR 108: ambiguous outlet ID name for Subcatchment 119032_bef.
  
  ERROR 108: ambiguous outlet ID name for Subcatchment 119032_Dach.
  
  ERROR 108: ambiguous outlet ID name for Subcatchment 119033.
  
  ERROR 108: ambiguous outlet ID name for Subcatchment 119033_bef.
  
  ERROR 108: ambiguous outlet ID name for Subcatchment 119033_Dach.
  
  ERROR 108: ambiguous outlet ID name for Subcatchment 119034.
  
  ERROR 108: ambiguous outlet ID name for Subcatchment 119034_bef.
  
  ERROR 108: ambiguous outlet ID name for Subcatchment 119034_Dach.
  
  ERROR 108: ambiguous outlet ID name for Subcatchment 119035.
  
  ERROR 108: ambiguous outlet ID name for Subcatchment 119035_bef.
  
  ERROR 108: ambiguous outlet ID name for Subcatchment 119035_Dach.
  
  ERROR 108: ambiguous outlet ID name for Subcatchment 119036.
  
  ERROR 108: ambiguous outlet ID name for Subcatchment 119036_bef.
  
  ERROR 108: ambiguous outlet ID name for Subcatchment 119037.
  
  ERROR 108: ambiguous outlet ID name for Subcatchment 119037_bef.
  
  ERROR 108: ambiguous outlet ID name for Subcatchment 119037_Dach.
  
  ERROR 108: ambiguous outlet ID name for Subcatchment 119038.
  
  ERROR 108: ambiguous outlet ID name for Subcatchment 119038_bef.
  
  ERROR 108: ambiguous outlet ID name for Subcatchment 119038_Dach.
  
  ERROR 108: ambiguous outlet ID name for Subcatchment 119039.
  
  ERROR 108: ambiguous outlet ID name for Subcatchment 119039_bef.
  
  ERROR 108: ambiguous outlet ID name for Subcatchment 119039_Dach.
  
  ERROR 108: ambiguous outlet ID name for Subcatchment 119040.
  
  ERROR 108: ambiguous outlet ID name for Subcatchment 119040_bef.
  
  ERROR 108: ambiguous outlet ID name for Subcatchment 119040_Dach.
  
  ERROR 108: ambiguous outlet ID name for Subcatchment 119042.
  
  ERROR 108: ambiguous outlet ID name for Subcatchment 119042_bef.
  
  ERROR 108: ambiguous outlet ID name for Subcatchment 119042_Dach.
  
  ERROR 108: ambiguous outlet ID name for Subcatchment 119043.
  
  ERROR 108: ambiguous outlet ID name for Subcatchment 119043_bef.
  
  ERROR 108: ambiguous outlet ID name for Subcatchment 119043_Dach.
  
  ERROR 108: ambiguous outlet ID name for Subcatchment 119044.
  
  ERROR 108: ambiguous outlet ID name for Subcatchment 119044_bef.
  
  ERROR 108: ambiguous outlet ID name for Subcatchment 119044_Dach.
  
  ERROR 108: ambiguous outlet ID name for Subcatchment 119045.
  
  ERROR 108: ambiguous outlet ID name for Subcatchment 119045_bef.
  
  ERROR 108: ambiguous outlet ID name for Subcatchment 119045_Dach.
  
  ERROR 108: ambiguous outlet ID name for Subcatchment 119046.
  
  ERROR 108: ambiguous outlet ID name for Subcatchment 119046_bef.
  
  ERROR 108: ambiguous outlet ID name for Subcatchment 119046_Dach.
  
  ERROR 108: ambiguous outlet ID name for Subcatchment 119047.
  
  ERROR 108: ambiguous outlet ID name for Subcatchment 119047_bef.
  
  ERROR 108: ambiguous outlet ID name for Subcatchment 119047_Dach.
  
  ERROR 108: ambiguous outlet ID name for Subcatchment 119056.
  
  ERROR 108: ambiguous outlet ID name for Subcatchment 119056_bef.
  
  ERROR 108: ambiguous outlet ID name for Subcatchment 119056_Dach.
  
  ERROR 108: ambiguous outlet ID name for Subcatchment 119057.
  
  ERROR 108: ambiguous outlet ID name for Subcatchment 119057_bef.
  
  ERROR 108: ambiguous outlet ID name for Subcatchment 119057_Dach.
  
  ERROR 108: ambiguous outlet ID name for Subcatchment 119058.
  
  ERROR 108: ambiguous outlet ID name for Subcatchment 119058_bef.
  
  ERROR 108: ambiguous outlet ID name for Subcatchment 119058_Dach.
  
  ERROR 108: ambiguous outlet ID name for Subcatchment 120001.
  
  ERROR 108: ambiguous outlet ID name for Subcatchment 120001_bef.
  
  ERROR 108: ambiguous outlet ID name for Subcatchment 120001_Dach.
  
  ERROR 108: ambiguous outlet ID name for Subcatchment 120002.
  
  ERROR 108: ambiguous outlet ID name for Subcatchment 120002_bef.
  
  ERROR 108: ambiguous outlet ID name for Subcatchment 120002_Dach.
  
  ERROR 108: ambiguous outlet ID name for Subcatchment 120003.
  
  ERROR 108: ambiguous outlet ID name for Subcatchment 120003_bef.
  
  ERROR 108: ambiguous outlet ID name for Subcatchment 120003_Dach.
  
  ERROR 108: ambiguous outlet ID name for Subcatchment 120004.
  
  ERROR 108: ambiguous outlet ID name for Subcatchment 120004_bef.
  
  ERROR 108: ambiguous outlet ID name for Subcatchment 120004_Dach.
  
  ERROR 108: ambiguous outlet ID name for Subcatchment 120005.
  
  ERROR 108: ambiguous outlet ID name for Subcatchment 120005_bef.
  
  ERROR 108: ambiguous outlet ID name for Subcatchment 120005_Dach.
  
  ERROR 108: ambiguous outlet ID name for Subcatchment 120006.
  
  ERROR 108: ambiguous outlet ID name for Subcatchment 120006_bef.
  
  ERROR 108: ambiguous outlet ID name for Subcatchment 120006_Dach.
  
  ERROR 108: ambiguous outlet ID name for Subcatchment 120007.
  
  ERROR 108: ambiguous outlet ID name for Subcatchment 120007_bef.
  
  ERROR 108: ambiguous outlet ID name for Subcatchment 120007_Dach.
  
  ERROR 108: ambiguous outlet ID name for Subcatchment 120008.
  
  ERROR 108: ambiguous outlet ID name for Subcatchment 120008_bef.
  
  ERROR 108: ambiguous outlet ID name for Subcatchment 120008_Dach.
  
  ERROR 108: ambiguous outlet ID name for Subcatchment 120010.
  
  ERROR 108: ambiguous outlet ID name for Subcatchment 120010_bef.
  
  ERROR 108: ambiguous outlet ID name for Subcatchment 120010_Dach.
  
  ERROR 108: ambiguous outlet ID name for Subcatchment 120011.
  
  ERROR 108: ambiguous outlet ID name for Subcatchment 120011_bef.
  
  ERROR 108: ambiguous outlet ID name for Subcatchment 120011_Dach.
  
  ERROR 108: ambiguous outlet ID name for Subcatchment 120012.
  
  ERROR 108: ambiguous outlet ID name for Subcatchment 120012_bef.
  
  ERROR 108: ambiguous outlet ID name for Subcatchment 120012_Dach.
  
  ERROR 108: ambiguous outlet ID name for Subcatchment 120013.
  
  ERROR 108: ambiguous outlet ID name for Subcatchment 120013_bef.
  
  ERROR 108: ambiguous outlet ID name for Subcatchment 120013_Dach.
  
  ERROR 108: ambiguous outlet ID name for Subcatchment 120014.
  
  ERROR 108: ambiguous outlet ID name for Subcatchment 120014_bef.
  
  ERROR 108: ambiguous outlet ID name for Subcatchment 120014_Dach.
  
  ERROR 108: ambiguous outlet ID name for Subcatchment 120015.
  
  ERROR 108: ambiguous outlet ID name for Subcatchment 120015_bef.
  
  ERROR 108: ambiguous outlet ID name for Subcatchment 120015_Dach.
  
  ERROR 108: ambiguous outlet ID name for Subcatchment 120016.
  
  ERROR 108: ambiguous outlet ID name for Subcatchment 120016_bef.
  
  ERROR 108: ambiguous outlet ID name for Subcatchment 120016_Dach.
  
  ERROR 108: ambiguous outlet ID name for Subcatchment 120017.
  
  ERROR 108: ambiguous outlet ID name for Subcatchment 120017_bef.
  
  ERROR 108: ambiguous outlet ID name for Subcatchment 120017_Dach.
  
  ERROR 108: ambiguous outlet ID name for Subcatchment 120018.
  
  ERROR 108: ambiguous outlet ID name for Subcatchment 120018_bef.
  
  ERROR 108: ambiguous outlet ID name for Subcatchment 120018_Dach.
  
  ERROR 108: ambiguous outlet ID name for Subcatchment 120019.
  
  ERROR 108: ambiguous outlet ID name for Subcatchment 120019_bef.
  
  ERROR 108: ambiguous outlet ID name for Subcatchment 120019_Dach.
  
  ERROR 108: ambiguous outlet ID name for Subcatchment 120020.
  
  ERROR 108: ambiguous outlet ID name for Subcatchment 120020_bef.
  
  ERROR 108: ambiguous outlet ID name for Subcatchment 120020_Dach.
  
  ERROR 108: ambiguous outlet ID name for Subcatchment 120021.
  
  ERROR 108: ambiguous outlet ID name for Subcatchment 120021_bef.
  
  ERROR 108: ambiguous outlet ID name for Subcatchment 120021_Dach.
  
  ERROR 108: ambiguous outlet ID name for Subcatchment 120022.
  
  ERROR 108: ambiguous outlet ID name for Subcatchment 120022_bef.
  
  ERROR 108: ambiguous outlet ID name for Subcatchment 120022_Dach.
  WARNING 09: time series interval greater than recording interval for Rain Gage RainGage