
  EPA STORM WATER MANAGEMENT MODEL - VERSION 5.2 (Build 5.2.4)
  PYSWMM TOOLKIT API - VERSION v1.0 (2024-04-17)
  ------------------------------------------------------------

  Kohn's Wasserwirtschaft 
  Fabio Q. 
  2024-05-22 
  WARNING 09: time series interval greater than recording interval for Rain Gage RainGage
  
  ****************
  Analysis Options
  ****************
  Flow Units ............... CMS
  Process Models:
    Rainfall/Runoff ........ YES
    RDII ................... NO
    Snowmelt ............... NO
    Groundwater ............ NO
    Flow Routing ........... NO
    Water Quality .......... NO
  Infiltration Method ...... HORTON
  Starting Date ............ 01/01/2007 00:00:00
  Ending Date .............. 01/01/2007 12:00:00
  Antecedent Dry Days ...... 0.0
  Report Time Step ......... 00:01:00
  Wet Time Step ............ 00:01:00
  Dry Time Step ............ 01:00:00
  
  
  ***************************
  Subcatchment Runoff Summary
  ***************************
  
  ------------------------------------------------------------------------------------------------------------------------------
                            Total      Total      Total      Total     Imperv       Perv      Total       Total     Peak  Runoff
                           Precip      Runon       Evap      Infil     Runoff     Runoff     Runoff      Runoff   Runoff   Coeff
  Subcatchment                 mm         mm         mm         mm         mm         mm         mm    10^6 ltr      CMS
  ------------------------------------------------------------------------------------------------------------------------------
  F_119001                   1.29       0.00       0.00       1.28       0.00       0.01       0.01        0.00     0.00   0.010
  F_119001_bef               1.29       0.00       0.00       1.13       0.00       0.17       0.17        0.00     0.00   0.128
  F_119002                   1.29       0.00       0.00       1.21       0.00       0.08       0.08        0.00     0.00   0.060
  F_119002_bef               1.29       0.00       0.00       1.05       0.00       0.24       0.24        0.00     0.00   0.184
  F_119003                   1.29       0.00       0.00       1.16       0.00       0.13       0.13        0.00     0.00   0.098
  F_119003_bef               1.29       0.00       0.00       1.05       0.00       0.25       0.25        0.00     0.00   0.190
  F_119004B01                1.29       0.00       0.00       1.19       0.00       0.10       0.10        0.00     0.00   0.079
  F_119004B01_bef            1.29       0.00       0.00       1.06       0.00       0.23       0.23        0.00     0.00   0.176
  F_119005                   1.29       0.00       0.00       1.21       0.00       0.09       0.09        0.00     0.00   0.066
  F_119005_bef               1.29       0.00       0.00       1.14       0.00       0.15       0.15        0.00     0.00   0.115
  F_119005_Dach              1.29       0.00       0.00       0.93       0.00       0.37       0.37        0.00     0.00   0.284
  F_119007                   1.29       0.00       0.00       1.22       0.00       0.07       0.07        0.00     0.00   0.056
  F_119007_bef               1.29       0.00       0.00       1.17       0.00       0.12       0.12        0.00     0.00   0.092
  F_119007_Dach              1.29       0.00       0.00       1.01       0.00       0.28       0.28        0.00     0.00   0.217
  F_119007_Dach2             1.29       0.00       0.00       0.93       0.00       0.37       0.37        0.00     0.00   0.284
  F_119008                   1.29       0.00       0.00       1.22       0.00       0.07       0.07        0.00     0.00   0.055
  F_119008_bef               1.29       0.00       0.00       1.21       0.00       0.08       0.08        0.00     0.00   0.059
  F_119008_Dach              1.29       0.00       0.00       1.15       0.00       0.14       0.14        0.00     0.00   0.109
  F_119009                   1.29       0.00       0.00       1.21       0.00       0.08       0.08        0.00     0.00   0.060
  F_119009_bef               1.29       0.00       0.00       1.20       0.00       0.09       0.09        0.00     0.00   0.072
  F_119009_Dach              1.29       0.00       0.00       1.04       0.00       0.25       0.25        0.00     0.00   0.195
  F_119010                   1.29       0.00       0.00       1.19       0.00       0.10       0.10        0.00     0.00   0.076
  F_119010_bef               1.29       0.00       0.00       1.19       0.00       0.10       0.10        0.00     0.00   0.079
  F_119014                   1.29       0.00       0.00       1.24       0.00       0.05       0.05        0.00     0.00   0.037
  F_119014_bef               1.29       0.00       0.00       1.14       0.00       0.15       0.15        0.00     0.00   0.117
  F_119015A                  1.29       0.00       0.00       1.12       0.00       0.17       0.17        0.00     0.00   0.130
  F_119015A_bef              1.29       0.00       0.00       1.12       0.00       0.17       0.17        0.00     0.00   0.130
  F_119015A_Dach             1.29       0.00       0.00       1.12       0.00       0.17       0.17        0.00     0.00   0.130
  F_119017                   1.29       0.00       0.00       1.00       0.00       0.29       0.29        0.00     0.00   0.228
  F_119017_bef               1.29       0.00       0.00       1.00       0.00       0.29       0.29        0.00     0.00   0.228
  F_119017_Dach              1.29       0.00       0.00       0.99       0.00       0.30       0.30        0.00     0.00   0.232
  F_119018                   1.29       0.00       0.00       1.05       0.00       0.24       0.24        0.00     0.00   0.184
  F_119018_bef               1.29       0.00       0.00       1.05       0.00       0.24       0.24        0.00     0.00   0.184
  F_119018_Dach              1.29       0.00       0.00       1.05       0.00       0.24       0.24        0.00     0.00   0.188
  F_119019                   1.29       0.00       0.00       1.01       0.00       0.28       0.28        0.00     0.00   0.219
  F_119019_bef               1.29       0.00       0.00       1.01       0.00       0.28       0.28        0.00     0.00   0.219
  F_119019_Dach              1.29       0.00       0.00       1.01       0.00       0.29       0.29        0.00     0.00   0.222
  F_119020                   1.29       0.00       0.00       1.09       0.00       0.21       0.21        0.00     0.00   0.160
  F_119020_bef               1.29       0.00       0.00       1.09       0.00       0.21       0.21        0.00     0.00   0.160
  F_119020_Dach              1.29       0.00       0.00       1.09       0.00       0.21       0.21        0.00     0.00   0.160
  F_119021                   1.29       0.00       0.00       1.17       0.00       0.12       0.12        0.00     0.00   0.092
  F_119021_bef               1.29       0.00       0.00       1.17       0.00       0.12       0.12        0.00     0.00   0.092
  F_119021_Dach              1.29       0.00       0.00       1.17       0.00       0.12       0.12        0.00     0.00   0.092
  F_119022                   1.29       0.00       0.00       1.20       0.00       0.09       0.09        0.00     0.00   0.072
  F_119022_bef               1.29       0.00       0.00       1.20       0.00       0.09       0.09        0.00     0.00   0.072
  F_119022_Dach              1.29       0.00       0.00       1.20       0.00       0.09       0.09        0.00     0.00   0.072
  F_119024                   1.29       0.00       0.00       1.21       0.00       0.08       0.08        0.00     0.00   0.066
  F_119024_bef               1.29       0.00       0.00       1.21       0.00       0.08       0.08        0.00     0.00   0.066
  F_119024_Dach              1.29       0.00       0.00       1.21       0.00       0.08       0.08        0.00     0.00   0.066
  F_119025                   1.29       0.00       0.00       1.21       0.00       0.09       0.09        0.00     0.00   0.066
  F_119025_bef               1.29       0.00       0.00       1.21       0.00       0.09       0.09        0.00     0.00   0.066
  F_119025_Dach              1.29       0.00       0.00       1.21       0.00       0.09       0.09        0.00     0.00   0.066
  F_119026                   1.29       0.00       0.00       1.20       0.00       0.09       0.09        0.00     0.00   0.073
  F_119026_bef               1.29       0.00       0.00       1.20       0.00       0.09       0.09        0.00     0.00   0.073
  F_119026_Dach              1.29       0.00       0.00       1.20       0.00       0.09       0.09        0.00     0.00   0.073
  F_119027                   1.29       0.00       0.00       1.14       0.00       0.15       0.15        0.00     0.00   0.120
  F_119027_bef               1.29       0.00       0.00       1.14       0.00       0.15       0.15        0.00     0.00   0.120
  F_119027_Dach              1.29       0.00       0.00       1.14       0.00       0.15       0.15        0.00     0.00   0.120
  F_119030                   1.29       0.00       0.00       1.25       0.00       0.04       0.04        0.00     0.00   0.029
  F_119030_bef               1.29       0.00       0.00       1.23       0.00       0.06       0.06        0.00     0.00   0.049
  F_119031                   1.29       0.00       0.00       1.23       0.00       0.06       0.06        0.00     0.00   0.049
  F_119031_bef               1.29       0.00       0.00       1.16       0.00       0.13       0.13        0.00     0.00   0.101
  F_119032                   1.29       0.00       0.00       1.21       0.00       0.08       0.08        0.00     0.00   0.060
  F_119032_bef               1.29       0.00       0.00       1.20       0.00       0.10       0.10        0.00     0.00   0.074
  F_119033                   1.29       0.00       0.00       1.22       0.00       0.08       0.08        0.00     0.00   0.059
  F_119033_bef               1.29       0.00       0.00       1.21       0.00       0.09       0.09        0.00     0.00   0.067
  F_119034                   1.29       0.00       0.00       1.16       0.00       0.13       0.13        0.00     0.00   0.099
  F_119034_bef               1.29       0.00       0.00       1.12       0.00       0.17       0.17        0.00     0.00   0.133
  F_119035                   1.29       0.00       0.00       1.17       0.00       0.12       0.12        0.00     0.00   0.091
  F_119035_bef               1.29       0.00       0.00       1.15       0.00       0.15       0.15        0.00     0.00   0.113
  F_119036                   1.29       0.00       0.00       1.25       0.00       0.04       0.04        0.00     0.00   0.034
  F_119036_bef               1.29       0.00       0.00       1.24       0.00       0.05       0.05        0.00     0.00   0.039
  F_119037                   1.29       0.00       0.00       1.16       0.00       0.13       0.13        0.00     0.00   0.100
  F_119037_bef               1.29       0.00       0.00       1.11       0.00       0.18       0.18        0.00     0.00   0.138
  F_119038                   1.29       0.00       0.00       1.18       0.00       0.11       0.11        0.00     0.00   0.085
  F_119038_bef               1.29       0.00       0.00       1.18       0.00       0.12       0.12        0.00     0.00   0.090
  F_119039                   1.29       0.00       0.00       1.00       0.00       0.29       0.29        0.00     0.00   0.225
  F_119039_bef               1.29       0.00       0.00       1.00       0.00       0.29       0.29        0.00     0.00   0.225
  F_119040                   1.29       0.00       0.00       0.98       0.00       0.31       0.31        0.00     0.00   0.241
  F_119040_bef               1.29       0.00       0.00       0.97       0.00       0.33       0.33        0.00     0.00   0.253
  F_119042                   1.29       0.00       0.00       1.25       0.00       0.04       0.04        0.00     0.00   0.034
  F_119042_bef               1.29       0.00       0.00       1.24       0.00       0.05       0.05        0.00     0.00   0.039
  F_119043                   1.29       0.00       0.00       1.16       0.00       0.13       0.13        0.00     0.00   0.103
  F_119043_bef               1.29       0.00       0.00       1.11       0.00       0.18       0.18        0.00     0.00   0.141
  F_119044                   1.29       0.00       0.00       1.18       0.00       0.12       0.12        0.00     0.00   0.090
  F_119044_bef               1.29       0.00       0.00       1.12       0.00       0.18       0.18        0.00     0.00   0.136
  F_119045                   1.29       0.00       0.00       1.25       0.00       0.04       0.04        0.00     0.00   0.034
  F_119045_bef               1.29       0.00       0.00       1.23       0.00       0.06       0.06        0.00     0.00   0.046
  F_119046                   1.29       0.00       0.00       1.20       0.00       0.09       0.09        0.00     0.00   0.072
  F_119046_bef               1.29       0.00       0.00       1.14       0.00       0.15       0.15        0.00     0.00   0.114
  F_119047                   1.29       0.00       0.00       1.16       0.00       0.13       0.13        0.00     0.00   0.104
  F_119047_bef               1.29       0.00       0.00       1.14       0.00       0.15       0.15        0.00     0.00   0.116
  F_119056                   1.29       0.00       0.00       1.19       0.00       0.10       0.10        0.00     0.00   0.078
  F_119056_bef               1.29       0.00       0.00       1.15       0.00       0.14       0.14        0.00     0.00   0.112
  F_119056_Dach              1.29       0.00       0.00       0.81       0.00       0.50       0.50        0.00     0.00   0.384
  F_119057                   1.29       0.00       0.00       1.18       0.00       0.11       0.11        0.00     0.00   0.086
  F_119057_bef               1.29       0.00       0.00       1.10       0.00       0.19       0.19        0.00     0.00   0.147
  F_119058                   1.29       0.00       0.00       1.10       0.00       0.19       0.19        0.00     0.00   0.145
  F_119058_bef               1.29       0.00       0.00       0.95       0.00       0.34       0.34        0.00     0.00   0.264
  F_120001                   1.29       0.00       0.00       1.24       0.00       0.05       0.05        0.00     0.00   0.040
  F_120002                   1.29       0.00       0.00       1.23       0.00       0.06       0.06        0.00     0.00   0.046
  F_120003                   1.29       0.00       0.00       1.16       0.00       0.13       0.13        0.00     0.00   0.101
  F_120004                   1.29       0.00       0.00       1.17       0.00       0.13       0.13        0.00     0.00   0.097
  F_120004_bef               1.29       0.00       0.00       1.05       0.00       0.24       0.24        0.00     0.00   0.188
  F_120005                   1.29       0.00       0.00       1.22       0.00       0.07       0.07        0.00     0.00   0.056
  F_120005_bef               1.29       0.00       0.00       1.14       0.00       0.16       0.16        0.00     0.00   0.121
  F_120006                   1.29       0.00       0.00       1.19       0.00       0.10       0.10        0.00     0.00   0.074
  F_120011                   1.29       0.00       0.00       1.18       0.00       0.11       0.11        0.00     0.00   0.088
  F_120011_bef               1.29       0.00       0.00       1.09       0.00       0.20       0.20        0.00     0.00   0.154
  F_120011_Dach              1.29       0.00       0.00       1.09       0.00       0.20       0.20        0.00     0.00   0.154
  F_120012                   1.29       0.00       0.00       1.21       0.00       0.08       0.08        0.00     0.00   0.061
  F_120012_bef               1.29       0.00       0.00       1.21       0.00       0.08       0.08        0.00     0.00   0.061
  F_120012_Dach              1.29       0.00       0.00       1.02       0.00       0.27       0.27        0.00     0.00   0.209
  F_120013                   1.29       0.00       0.00       1.19       0.00       0.10       0.10        0.00     0.00   0.081
  F_120013_bef               1.29       0.00       0.00       1.18       0.00       0.11       0.11        0.00     0.00   0.086
  F_120013_Dach              1.29       0.00       0.00       0.95       0.00       0.35       0.35        0.00     0.00   0.271
  F_120014                   1.29       0.00       0.00       1.21       0.00       0.08       0.08        0.00     0.00   0.066
  F_120014_bef               1.29       0.00       0.00       1.16       0.00       0.13       0.13        0.00     0.00   0.100
  F_120014_Dach              1.29       0.00       0.00       1.02       0.00       0.27       0.27        0.00     0.00   0.211
  F_120015                   1.29       0.00       0.00       1.22       0.00       0.07       0.07        0.00     0.00   0.055
  F_120015_bef               1.29       0.00       0.00       1.21       0.00       0.08       0.08        0.00     0.00   0.062
  F_120015_Dach              1.29       0.00       0.00       0.86       0.00       0.44       0.44        0.00     0.00   0.341
  F_120016                   1.29       0.00       0.00       1.24       0.00       0.05       0.05        0.00     0.00   0.036
  F_120016_bef               1.29       0.00       0.00       1.20       0.00       0.09       0.09        0.00     0.00   0.069
  F_120016_Dach              1.29       0.00       0.00       1.07       0.00       0.22       0.22        0.00     0.00   0.173
  F_120017                   1.29       0.00       0.00       1.19       0.00       0.10       0.10        0.00     0.00   0.081
  F_120017_bef               1.29       0.00       0.00       1.17       0.00       0.13       0.13        0.00     0.00   0.097
  F_120017_Dach              1.29       0.00       0.00       1.03       0.00       0.27       0.27        0.00     0.00   0.206
  F_120018                   1.29       0.00       0.00       1.20       0.00       0.09       0.09        0.00     0.00   0.071
  F_120018_bef               1.29       0.00       0.00       1.18       0.00       0.12       0.12        0.00     0.00   0.090
  F_120018_Dach              1.29       0.00       0.00       1.18       0.00       0.12       0.12        0.00     0.00   0.090
  F_120020                   1.29       0.00       0.00       1.17       0.00       0.12       0.12        0.00     0.00   0.090
  F_120021                   1.29       0.00       0.00       1.16       0.00       0.13       0.13        0.00     0.00   0.101
  F_120022                   1.29       0.00       0.00       1.18       0.00       0.11       0.11        0.00     0.00   0.083
  F_120022_bef               1.29       0.00       0.00       1.18       0.00       0.11       0.11        0.00     0.00   0.083
  F_120022_Dach              1.29       0.00       0.00       1.18       0.00       0.11       0.11        0.00     0.00   0.083
  

  Analysis begun on:  Wed May 22 15:20:41 2024
  Analysis ended on:  Wed May 22 15:20:41 2024
  Total elapsed time: < 1 sec